[Format]      =  1
[Precision]   =  1e-008
[Frequency]   =  0
[MinAngle]    =  30
[DoSmartMesh] =  1
[Depth]       =  30
[LengthUnits] =  millimeters
[ProblemType] =  planar
[Coordinates] =  cartesian
[Comment]     =  "Add comments here."
[PointProps]   = 0
[BdryProps]   = 3
  <BeginBdry>
    <BdryName> = "Voltage_TX"
    <BdryType> = 0
    <vsr> = 1
    <vsi> = 0
    <qsr> = 0
    <qsi> = 0
    <c0r>  = 0
    <c0i>  = 0
    <c1r>  = 0
    <c1i>  = 0
  <EndBdry>
  <BeginBdry>
    <BdryName> = "Ground"
    <BdryType> = 0
    <vsr> = 0
    <vsi> = 0
    <qsr> = 0
    <qsi> = 0
    <c0r>  = 0
    <c0i>  = 0
    <c1r>  = 0
    <c1i>  = 0
  <EndBdry>
  <BeginBdry>
    <BdryName> = "Floating"
    <BdryType> = 0
    <vsr> = 0
    <vsi> = 0
    <qsr> = 0
    <qsi> = 0
    <c0r>  = 0
    <c0i>  = 0
    <c1r>  = 0
    <c1i>  = 0
  <EndBdry>
[BlockProps]  = 6
  <BeginBlock>
    <BlockName> = "Skin"
    <ox> = 0.040000000000000001
    <oy> = 0.040000000000000001
    <ex> = 0
    <ey> = 0
    <ltx> = 0
    <lty> = 0
  <EndBlock>
  <BeginBlock>
    <BlockName> = "Fat"
    <ox> = 0.028000000000000001
    <oy> = 0.028000000000000001
    <ex> = 0
    <ey> = 0
    <ltx> = 0
    <lty> = 0
  <EndBlock>
  <BeginBlock>
    <BlockName> = "Muscle"
    <ox> = 0.39000000000000001
    <oy> = 0.39000000000000001
    <ex> = 0
    <ey> = 0
    <ltx> = 0
    <lty> = 0
  <EndBlock>
  <BeginBlock>
    <BlockName> = "Bone"
    <ox> = 0.02
    <oy> = 0.02
    <ex> = 0
    <ey> = 0
    <ltx> = 0
    <lty> = 0
  <EndBlock>
  <BeginBlock>
    <BlockName> = "Copper"
    <ox> = 59900000
    <oy> = 59900000
    <ex> = 0
    <ey> = 0
    <ltx> = 0
    <lty> = 0
  <EndBlock>
  <BeginBlock>
    <BlockName> = "Air"
    <ox> = 1e-010
    <oy> = 1e-010
    <ex> = 0
    <ey> = 0
    <ltx> = 0
    <lty> = 0
  <EndBlock>
[ConductorProps]  = 0
[NumPoints] = 37
0	165	0	0	0
15	150	0	0	0
0	135	0	0	0
-15	150	0	0	0
0	195	0	0	0
45	150	0	0	0
0	105	0	0	0
-45	150	0	0	0
0	200	0	0	0
50	150	0	0	0
0	100	0	0	0
-50	150	0	0	0
0	202	0	0	0
52	150	0	0	0
0	98	0	0	0
-52	150	0	0	0
-7.5	202	0	0	0
7.5	202	0	0	0
7.5	203	0	0	0
-7.5	203	0	0	0
-10	213	0	0	0
10	213	0	0	0
10	214	0	0	0
-10	214	0	0	0
52	142.5	0	0	0
53	142.5	0	0	0
53	157.5	0	0	0
52	157.5	0	0	0
63	140	0	0	0
64	140	0	0	0
64	160	0	0	0
63	160	0	0	0
0	350	0	0	0
200	150	0	0	0
0	-50	0	0	0
-200	150	0	0	0
-24	223	0	0	0
[NumSegments] = 18
16	12	-1	0	0	0	0
12	17	-1	0	0	0	0
17	18	-1	0	0	0	0
18	19	-1	1	0	0	0
19	16	-1	0	0	0	0
20	21	-1	0	0	0	0
21	22	-1	0	0	0	0
22	23	-1	2	0	0	0
23	20	-1	0	0	0	0
24	25	-1	0	0	0	0
25	26	-1	3	0	0	0
26	27	-1	0	0	0	0
27	13	-1	0	0	0	0
13	24	-1	0	0	0	0
28	29	-1	0	0	0	0
29	30	-1	2	0	0	0
30	31	-1	0	0	0	0
31	28	-1	0	0	0	0
[NumArcSegments] = 20
0	1	90	1	0	0	0	0	1
1	2	90	1	0	0	0	0	1
2	3	90	1	0	0	0	0	1
3	0	90	1	0	0	0	0	1
4	5	90	1	0	0	0	0	1
5	6	90	1	0	0	0	0	1
6	7	90	1	0	0	0	0	1
7	4	90	1	0	0	0	0	1
8	9	90	1	0	0	0	0	1
9	10	90	1	0	0	0	0	1
10	11	90	1	0	0	0	0	1
11	8	90	1	0	0	0	0	1
12	13	90	1	0	0	0	0	1
13	14	90	1	0	0	0	0	1
14	15	90	1	0	0	0	0	1
15	12	90	1	0	0	0	0	1
32	33	90	1	2	0	0	0	1
33	34	90	1	0	0	0	0	1
34	35	90	1	0	0	0	0	1
35	32	90	1	0	0	0	0	1
[NumHoles] = 0
[NumBlockLabels] = 9
0	150	4	-1	0	0
30	150	3	-1	0	0
47.5	150	2	-1	0	0
51	150	1	-1	0	0
0	202.5	5	-1	0	0
0	213.5	5	-1	0	0
52.5	150	5	-1	0	0
63.5	150	5	-1	0	0
190	150	6	-1	0	0
[Solution]
18022
0	350	0	0	-1
0.01745307099674143	348.00007615387165	0	0	-1
-0.017453070996512877	348.00007615387165	1.0353311869065074e-015	0	-2
0.023957019859240845	347.2547974332075	0	0	-1
-0.023957019858928112	347.25479743320739	1.20232665672723e-015	0	-2
0.027208994290490552	346.88215807287543	0	0	-1
-0.027208994290135232	346.88215807287531	-4.3141227788907893e-015	0	-2
0.028834981506115902	346.69583839270933	0	0	-1
-0.02883498150573929	346.69583839270922	6.1970120430369296e-015	0	-2
0.029647975113928082	346.60267855262634	0	0	-1
-0.029647975113540823	346.60267855262623	3.973421213364119e-015	0	-2
0.030460968721740755	346.5095187125433	0	0	-1
-0.030460968721342851	346.50951871254318	-3.3009417665445226e-015	0	-2
0.031888681650788758	346.4549965554645	0	0	-1
-0.031888681650390854	346.45499655546439	-1.2459698868448343e-015	0	-2
0.033316394579838253	346.40047439838565	0	0	-1
-0.033316394579440349	346.40047439838554	2.6316135092104784e-015	0	-2
0.034744107508886256	346.34595224130686	0	0	-1
-0.034744107508488352	346.34595224130675	4.433514346367771e-015	0	-2
0.036171820437934266	346.29143008422807	0	0	-1
-0.036171820437536362	346.29143008422795	2.598351449397981e-015	0	-2
0.039027246296030278	346.18238577007048	0	0	-1
-0.039027246295632374	346.18238577007037	-2.9279617466743758e-015	0	-2
0.041882672154126291	346.0733414559129	0	0	-1
-0.041882672153728387	346.07334145591278	-7.0013130094750797e-015	0	-2
0.044738098012222303	345.96429714175531	0	0	-1
-0.0447380980118244	345.9642971417552	-5.6348687557189428e-015	0	-2
0.047593523870319808	345.85525282759767	0	0	-1
-0.047593523869921904	345.85525282759755	-2.3835833975638754e-015	0	-2
0.050448949728417306	345.74620851344002	0	0	-1
-0.050448949728019402	345.74620851343991	-9.9190892982596326e-016	0	-2
0.053304375586513318	345.63716419928244	0	0	-1
-0.053304375586115414	345.63716419928232	-1.6274648585299645e-015	0	-2
0.056159801444609331	345.52811988512485	0	0	-1
-0.056159801444211427	345.52811988512474	-2.3199721984780839e-015	0	-2
0.059015227302706828	345.41907557096721	0	0	-1
-0.059015227302308924	345.4190755709671	-1.5193984960873517e-015	0	-2
0.061870653160804333	345.31003125680957	0	0	-1
-0.061870653160406429	345.31003125680945	9.3961647537597024e-016	0	-2
0.064726079018900345	345.20098694265198	0	0	-1
-0.064726079018502441	345.20098694265187	4.0495489665115402e-015	0	-2
0.067581504876996351	345.09194262849439	0	0	-1
-0.067581504876598447	345.09194262849428	6.0286347390711031e-015	0	-2
0.070436930735093856	344.98289831433675	0	0	-1
-0.070436930734695952	344.98289831433664	5.8399238608622649e-015	0	-2
2.8849145294884693e-013	344.87193477227777	2.1105952328438665e-015	0	-2
0.076147782451287366	344.76480968602152	0	0	-1
-0.076147782450889462	344.76480968602141	-2.4476787231301602e-016	0	-2
0.081858634167480876	344.54672105770629	0	0	-1
-0.081858634167082972	344.54672105770618	-5.9758958107055508e-015	0	-2
0.087569485883674386	344.32863242939106	0	0	-1
-0.087569485883276482	344.32863242939095	-5.9228925707249346e-015	0	-2
0.093280337599866411	344.11054380107589	0	0	-1
-0.093280337599468507	344.11054380107578	-4.2968904389749835e-015	0	-2
0.098991189316059922	343.89245517276066	0	0	-1
-0.098991189315662018	343.89245517276055	-4.988294641952185e-015	0	-2
0.10470204103225343	343.67436654444543	0	0	-1
-0.10470204103185553	343.67436654444532	-6.2366125731712245e-015	0	-2
0.11041289274844546	343.45627791613026	0	0	-1
-0.11041289274804755	343.45627791613015	-4.3248585838065206e-015	0	-2
0.11612374446463897	343.23818928781503	0	0	-1
-0.11612374446424106	343.23818928781492	1.011223936614448e-015	0	-2
0.12183459618083248	343.0201006594998	0	0	-1
-0.12183459618043457	343.02010065949969	6.4516402852748234e-015	0	-2
0.13135074948735376	342.8021449152443	0	0	-1
-0.13135074948695763	342.80214491524418	8.0761909900083097e-015	0	-2
0.14086690279387751	342.58418917098874	0	0	-1
-0.14086690279348316	342.58418917098862	5.2832359658978556e-015	0	-2
2.8776980798284058e-013	342.35966756070638	-1.5762633614071222e-016	0	-2
0.15989920940692251	342.14827768247767	0	0	-1
-0.15989920940653174	342.14827768247756	-2.7935002613162733e-015	0	-2
0.17893151601996754	341.7123661939666	0	0	-1
-0.17893151601958032	341.71236619396649	-4.1716803266981674e-015	0	-2
0.19796382263301257	341.27645470545554	0	0	-1
-0.19796382263262888	341.27645470545542	6.3690267080633984e-015	0	-2
0.2169961292460576	340.84054321694447	0	0	-1
-0.21699612924567746	340.84054321694435	2.6986486568792775e-014	0	-2
0.23602843585910263	340.4046317284334	0	0	-1
-0.23602843585872604	340.40463172843329	7.962688215769268e-014	0	-2
0.25506074247215016	339.96872023992228	0	0	-1
-0.25506074247177712	339.96872023992216	2.4964516622847267e-013	0	-2
0.27409304908519516	339.53280875141121	0	0	-1
-0.27409304908482568	339.5328087514111	7.670198576046775e-013	0	-2
2.7888802378583932e-013	339.07890236924891	4.4331617581073319e-012	0	-2
0.32736727382267189	338.66178287635216	0	0	-1
-0.32736727382230241	338.66178287635205	1.6320068594146782e-011	0	-2
0.38064149856015206	337.79075700129306	0	0	-1
-0.38064149855978258	337.79075700129295	7.4687305311245218e-011	0	-2
0.43391572329763223	336.91973112623396	0	0	-1
-0.43391572329726275	336.91973112623384	3.0882392551615345e-010	0	-2
0.48718994803510896	336.04870525117491	0	0	-1
-0.48718994803473947	336.04870525117479	1.1042517724252557e-009	0	-2
0.55565755643904202	335.1787418009983	0	0	-1
-0.55565755643867965	335.17874180099818	3.4762315229284326e-009	0	-2
0.62412516484297953	334.30877835082163	0	0	-1
-0.62412516484262426	334.30877835082151	9.6110624358268294e-009	0	-2
0.7610603816508501	332.56885145046834	0	0	-1
-0.76106038165050904	332.56885145046823	4.5459170144777325e-008	0	-2
0.9283406539980632	330.83157939846882	0	0	-1
-0.92834065399773635	330.8315793984687	1.8324661014823515e-007	0	-2
1.0956209263452763	329.09430734646929	0	0	-1
-1.0956209263449637	329.09430734646918	5.9533550420148318e-007	0	-2
1.490769671735535	325.62613131897047	0	0	-1
2.5401902803423582e-013	327.21287833967091	2.4879697506778067e-006	0	-2
-1.4907696717352223	325.62613131897035	8.670424010392901e-006	0	-2
1.9463862516858796	322.16537980798688	0	0	-1
-1.946386251685567	322.16537980798677	3.244945975533357e-005	0	-2
2.462331880972414	318.71310699195379	0	0	-1
-2.4623318809720729	318.71310699195368	9.7414107894947479e-005	0	-2
3.0384493975583382	315.2703644666139	0	0	-1
1.4699352846037073e-013	316.53147818371599	0.00012201310378874944	0	-2
-3.0384493975579971	315.27036446661378	0.00026870144447433612	0	-2
3.674563310467164	311.83820092469102	0	0	-1
1.5276668818842154e-013	312.932191013693	0.00031590580863156341	0	-2
-3.6745633104668229	311.83820092469091	0.00060677916707629464	0	-2
4.3704798532388054	308.41766183644813	0	0	-1
-0.98102028116074536	309.50913094724353	0.00074244369641641398	0	-2
-4.3704798532384928	308.41766183644802	0.0012066204786417361	0	-2
5.125987042952886	305.00978913122697	0	0	-1
1.4921397450962104e-013	305.66106747141197	0.0012226722707577744	0	-2
-5.1259870429525733	305.00978913122685	0.0021200989521403123	0	-2
5.9408547448006175	301.61562088006644	0	0	-1
2.2044544319336108	302.51349086844408	0.0012650112028481679	0	-2
-2.2044544319332302	302.51349086844391	0.0024786253560192617	0	-2
-5.9408547448003333	301.61562088006633	0.0035101265262931203	0	-2
6.8148347421862638	298.23619097949586	0	0	-1
3.3719213347352572	299.14852127904925	0.0016291444749355862	0	-2
-0.95868177464691495	298.52441509354708	0.0036445399055104102	0	-2
-6.8148347421859796	298.23619097949575	0.0053719575786793997	0	-2
7.7476608123361643	294.87252883660017	0	0	-1
2.8144445565990335	295.31560574147284	0.003131733036133628	0	-2
-4.2590994247360268	295.71624399410274	0.0062186179043823902	0	-2
-0.83905304334514952	293.45505393110955	0.006070060691938591	0	-2
-7.7476608123358801	294.87252883660005	0.0078080436047068772	0	-2
8.7390488073928339	291.52565905545265	0	0	-1
5.0252395289003164	292.24584477146112	0.0028951274518415602	0	-2
-4.7284161931066828	292.15792169377937	0.0089038523783764433	0	-2
-3.9254849429225551	288.17794287246949	0.011814606645145847	0	-2
3.9254849429228402	288.1779428724696	0.005851819342191685	0	-2
-8.7390488073925496	291.52565905545254	0.010936472014843549	0	-2
9.7886967409692147	288.19660112501049	0	0	-1
-9.7886967409689305	288.19660112501037	0.014662178073473111	0	-2
-7.3683478051101066	285.54635078763857	0.016438566570796471	0	-2
-2.5646307555834813	282.829650020413	0.015749464607259952	0	-2
7.3683478051103517	285.54635078763869	0.0038805916941655511	0	-2
2.7632882334586446	282.8665175263464	0.010791163214291468	0	-2
10.896284880136562	284.8863691085686	0	0	-1
-10.896284880136278	284.88636910856854	0.019071076713589957	0	-2
-8.0232495913686162	282.01746718621337	0.021132037067063264	0	-2
1.6084564287887675	277.08845514128097	0.017684404442339645	0	-2
-7.4297147279972933	278.00092061277985	0.026144815855162484	0	-2
8.0232495913689377	282.01746718621342	0.0052990528127140933	0	-2
7.4297147279975624	278.00092061277996	0.0091398451557786198	0	-2
12.061475842818254	281.59597133486619	0	0	-1
-12.06147584281797	281.59597133486614	0.024277112561635283	0	-2
1.8766391724892948	271.95408173501829	0.023174703466147546	0	-2
-2.9086575757213868	273.20266960359663	0.027901061511336082	0	-2
6.4769843628850525	273.76925686794607	0.01441576481014068	0	-2
-13.283914700559308	278.32641009093982	0.030152310176141402	0	-2
-10.512752820441792	275.35898834053404	0.032918626041760192	0	-2
-8.7885548423486544	272.26143301520131	0.036218751895382234	0	-2
13.283914700559563	278.32641009093987	0	0	-1
10.512752820442062	275.3589883405341	0.0066307917808950548	0	-2
-1.7837702611619246	267.71959638078164	0.034381954561418959	0	-2
5.9806129735168767	269.1944738508297	0.020182090715651937	0	-2
-7.2116013518870563	269.08638571632866	0.03970376591446436	0	-2
10.059754976367714	271.32417447074266	0.011033304390040606	0	-2
-14.563229086642195	275.07868131681744	0.036775983824757309	0	-2
-12.333648117219042	272.26605184907049	0.040068258475983262	0	-2
-13.233117071930366	268.7914480699954	0.047762979717011871	0	-2
14.563229086642451	275.07868131681749	0	0	-1
-5.6116099134391195	263.97934525108514	0.046369454813999365	0	-2
2.2566072267753938	262.42129255614356	0.035513233903969744	0	-2
9.1702136860174779	265.87762723021319	0.018561857806180981	0	-2
-12.921208155247093	264.74328270303084	0.055728150419456439	0	-2
15.89902930951186	271.85377430214515	0	0	-1
13.71887506869817	269.0026616582262	0.0066714921840856133	0	-2
-15.899029309511604	271.8537743021451	0.044216804451629968	0	-2
-17.290908471479497	268.65267138483978	0.052480647725037972	0	-2
-8.7458731415061557	259.64134698760824	0.05960776379816457	0	-2
-2.6068475656623953	258.50709004205208	0.050424923711801711	0	-2
6.9323461050772472	260.00963942517882	0.030275645280863985	0	-2
3.0346416729045975	256.47601450994279	0.042873176314796431	0	-2
14.678847227291984	265.54428497591164	0.0083588409992156505	0	-2
14.437636043157003	261.4912926029549	0.013436245481165513	0	-2
-18.738442592669713	265.47634765185995	0.06146576235525656	0	-2
-16.181028001034004	262.32284791076501	0.065754982824499389	0	-2
-14.677104619280058	259.11256410353366	0.070882497570127087	0	-2
17.290908471479753	268.65267138483989	0	0	-1
-13.325472611804072	255.83524834555055	0.076134772322818955	0	-2
-6.8530314076623178	252.70563181704435	0.069395327561453779	0	-2
-1.3543211246181164	253.13568966212711	0.056925091411143727	0	-2
8.483244864208725	254.98238193017426	0.034098002914421832	0	-2
4.759610248587693	250.73352793539115	0.047864508720800288	0	-2
18.738442592669941	265.47634765186001	0	0	-1
20.24119074016653	262.32577064218441	0	0	-1
14.094581463005296	254.32578723430652	0.023398082437698215	0	-2
17.739201814341659	259.12811815549242	0.009254939215312662	0	-2
-20.241190740166303	262.32577064218435	0.071356278112434737	0	-2
-18.213240031545165	259.36446489210459	0.076268883544944294	0	-2
-19.352894032376284	255.96106885572533	0.087438578973323536	0	-2
-11.874025415205056	250.57930385920372	0.085146743406638359	0	-2
-19.32413065127	251.9010069499775	0.098902146058648999	0	-2
-9.5962771818598682	244.87386408004613	0.090913876771161195	0	-2
-3.5661208285876635	246.04748856990295	0.073196490915632115	0	-2
1.6278538444727939	246.55852676566587	0.060439416736489823	0	-2
14.481958916649988	248.38364478483314	0.031162769486843444	0	-2
9.8760056311669953	245.00095642395758	0.045627898404831904	0	-2
21.798695162326368	259.20190005209054	0	0	-1
17.540454967667287	253.49292262884762	0.017061247498152795	0	-2
19.822735231956212	256.20565270321828	0.0083159110836091305	0	-2
-21.79869516232614	259.20190005209048	0.082253477983046108	0	-2
-23.410481428214325	256.1056874428217	0.094225620574417052	0	-2
-15.51485958854806	246.52024264627622	0.1041373524743129	0	-2
-25.076058572120559	253.03807595073243	0.10719795426933913	0	-2
-22.744850735786621	249.71386175269814	0.1133765812751895	0	-2
-21.468528913914064	246.40648964358039	0.12071101746029352	0	-2
-5.8065238597583502	238.96827626116348	0.088949598153114429	0	-2
-14.117317668404201	237.84588018140727	0.12015187099053881	0	-2
-0.69120504173271247	241.24352240994054	0.072454438748705483	0	-2
4.7858442901475922	242.40333371516283	0.059099282581565986	0	-2
13.769908622291148	240.81826521965274	0.044598725721643973	0	-2
21.063711959092508	248.76271919648863	0.016220505248820752	0	-2
21.221333429767622	241.59073836096812	0.028764597291579198	0	-2
23.410481428214553	256.1056874428217	0	0	-1
21.021613108856897	252.82266472536045	0.010157708293804833	0	-2
-20.348803404698451	243.04287217942519	0.12823733577865251	0	-2
-26.794919243111991	249.99999999999983	0.12150761340812066	0	-2
-24.97847876729637	246.90444515153223	0.12861301970762196	0	-2
-26.352765534512848	243.58883786122985	0.14486471782161206	0	-2
-2.1930519791874512	231.34354809920166	0.081242307796055846	0	-2
-7.8254210402019293	231.92993371622168	0.10242301578897797	0	-2
1.5001147123258582	234.74847871241525	0.071949825860549377	0	-2
-21.875252570658535	237.42454930889892	0.15199545608477141	0	-2
-13.195046043271248	230.13144639134728	0.13069842371401874	0	-2
-19.884720305096053	232.64010065495549	0.1594188810327529	0	-2
8.8760144734999464	235.14638312673537	0.059970059100424675	0	-2
16.120703395083101	233.70530448928571	0.05454488813252862	0	-2
26.79491924311219	249.99999999999983	0	0	-1
25.076058572120786	253.03807595073243	0	0	-1
24.522081998291867	246.63560690923961	0.011402426060722183	0	-2
24.716910657744368	241.000274556482	0.0218076971504827	0	-2
22.022270155165263	235.69009275702484	0.040829252228485768	0	-2
-26.607287821285151	239.53665963018744	0.1616439950628516	0	-2
-28.56653985957729	246.99238501798897	0.13731571183388999	0	-2
-30.390380768714579	244.01614715335882	0.15468658069256588	0	-2
0.88808490638413229	227.3762280737345	0.06972940777389923	0	-2
-3.4223937587831674	226.47305002600186	0.079865244548274733	0	-2
-8.7627306682450001	226.34523318776908	0.10572998820571082	0	-2
5.1865739064711764	228.33484646751756	0.065171595744083613	0	-2
-26.555189264664833	235.19938410996204	0.17956398594577413	0	-2
-15.850543252075475	226.74344877032442	0.15429989206707265	0	-2
-11.700098659182743	224.49709085362596	0.12597650750529543	0	-2
-22.694293030718409	228.60976743052581	0.18946643072130204	0	-2
-27.020815653294374	230.62136966305474	0.20174205200740472	0	-2
12.909738844019152	228.95838725468576	0.065417515443188107	0	-2
17.152789155088168	228.06807861441374	0.067913824662497735	0	-2
21.118602116403956	230.90092845320376	0.057073033115295449	0	-2
28.56653985957746	246.99238501798897	0	0	-1
26.804400917808792	243.86560038006542	0.010625415513889258	0	-2
28.23634370051084	240.5744826840357	0.013633456439571342	0	-2
28.561547483750516	236.52736364576117	0.02308292727211116	0	-2
28.727599779579947	231.01115233856791	0.040946583420403942	0	-2
-32.265886410914987	241.07219299699437	0.17344967638288397	0	-2
-30.172242740129299	237.59345957944475	0.18248588791658771	0	-2
4.6806242057256249	223.26585446608109	0.05705787165808799	0	-2
-0.50045581191147082	223.19676500027592	0.060791449874591799	0	-2
-6.730328863290616	223.58699211259608	0.088174832605406206	0	-2
-4.1042200644167179	222.13636029486926	0.068296540577392859	0	-2
-8.6581490949471149	222.92067283349294	0.099625938683568199	0	-2
7.6512541282279729	223.87659384852071	0.062274902974236997	0	-2
-30.56802895961372	233.55263252560241	0.20302938382029168	0	-2
-19.727574238405186	224.87293439265636	0.18752222492237991	0	-2
-15.747321684548448	222.44001541845049	0.16575713664142214	0	-2
-10.093184622746023	221.47114006006436	0.10877179003808923	0	-2
-12.695338781966871	221.03113728704685	0.13648959285647	0	-2
-26.856524786848386	226.27713622224616	0.22261634062834548	0	-2
-24	223	0.225776253754117	0	-2
-30.83032712660135	228.04015937626625	0.23170027554990155	0	-2
14.099097443041314	224.99056462663361	0.074391204474301503	0	-2
20.978926122092133	226.02925509901775	0.076371458914918949	0	-2
24.960809596274139	228.35292932143238	0.060625526970885711	0	-2
30.390380768714721	244.01614715335882	0	0	-1
32.265886410915101	241.07219299699437	0	0	-1
34.192485488991565	238.16141930585042	0	0	-1
32.596404761391668	234.94669659105267	0.014747824778061745	0	-2
34.198628908006384	231.73503135226187	0.01975795067577021	0	-2
29.045118724180416	224.47148477126083	0.070026905089660987	0	-2
34.735196855660568	227.71047860094308	0.033912315729546651	0	-2
-34.192485488991451	238.16141930585042	0.19389686351593585	0	-2
2.3781906328714273	221.21253637640325	0.049176064491543103	0	-2
4.2064031581966752	220.21750574375864	0.045113108757959534	0	-2
6.7524654299073177	220.98007462616087	0.053472574297351166	0	-2
0.74031499800695366	219.92808692143254	0.043246651225915936	0	-2
-2.5326916140354832	220.10736589867358	0.050984230335384094	0	-2
-6.2731330332164905	220.76437761862175	0.073080561993874221	0	-2
-7.958391359959168	221.00473668121302	0.087015165384257853	0	-2
-4.937472616825942	219.70897278685686	0.05839527273487926	0	-2
9.0147656438306676	221.167630748634	0.062209874981870028	0	-2
11.471375709396519	221.78849205167822	0.072201694025259999	0	-2
-36.169591142201455	235.28471272979058	0.21564978664445464	0	-2
-34.629858152829009	232.04262418326837	0.22655762765193049	0	-2
-18.416069423749335	220.3961654407594	0.20112150401627818	0	-2
-15.16551924693878	219.12926880320052	0.17291758948954083	0	-2
-8.6017877107429204	219.87407724429545	0.087118839685403238	0	-2
-10.304246714711017	219.91422751695816	0.1064125192206733	0	-2
-12.052159907759897	219.29016903478643	0.12794347558634828	0	-2
-30.511454574817009	223.39896034975493	0.25608905029254181	0	-2
-22.604148826532551	218.70411205311621	0.24644404015801571	0	-2
-28.943846055173019	219.01889052872349	0.27645644542594761	0	-2
-36.287889560033584	228.85941076365987	0.24983345973484339	0	-2
-36.894613916134695	224.84483537312215	0.27379425977652888	0	-2
15.908640873760824	221.26447514071268	0.093233680588053744	0	-2
24.785843742550924	224.07920832833511	0.08205701756452953	0	-2
20.849932460248855	221.0864401483644	0.10381048471514935	0	-2
36.16959114220154	235.28471272979056	0	0	-1
38.196601125010403	232.44294954150513	0	0	-1
35.189717776189767	222.2105175753214	0.059330849031511174	0	-2
27.415796206452697	218.84300645843101	0.1117547424876574	0	-2
40.27289799054131	229.6369953695901	0	0	-1
38.847250223442337	226.3431459094268	0.021088400104400114	0	-2
2.7525840174153293	219.1650314090669	0.038181789698939983	0	-2
3.841063502646672	218.46028656125191	0.034680830656738548	0	-2
5.3103157883536829	218.8023487827586	0.039536690565442581	0	-2
6.7634256958053554	218.6982955256189	0.0434886446328617	0	-2
8.0583356515569307	219.10888811613376	0.051452765501667386	0	-2
-0.35032945216484923	218.07283087313846	0.032575551668211751	0	-2
0.93782577762016439	217.78508206531137	0.02938899939058184	0	-2
-3.7446498620051831	218.29559682609826	0.042295163211749177	0	-2
-2.5001524089000227	217.92784962956904	0.035537142804301917	0	-2
-6.6884357048335055	219.11350154884153	0.06502127903254791	0	-2
-5.2723761386889523	217.89010023444638	0.045392829182193638	0	-2
10.387204265500968	219.35942949137791	0.067117499516969811	0	-2
11.959895698927012	219.17370317656031	0.07935259934364948	0	-2
-38.196601125010346	232.44294954150519	0.23833943466379759	0	-2
-16.50497143729028	217.66496595272008	0.19881491719888206	0	-2
-18.395925805385467	217.06279771547716	0.22664861840832437	0	-2
-14.602283298255825	217.10096874196446	0.17509754068780192	0	-2
-7.9883757568075184	218.72687394877116	0.073334466637645479	0	-2
-9.2521054254715231	218.74738451936872	0.087620292964226659	0	-2
-10.451914438000593	218.3500286430791	0.1016575215937089	0	-2
-11.804232508430342	216.96531246677327	0.1217006123109764	0	-2
-34.472686609820464	220.81580239271403	0.28719451161083581	0	-2
-20.317198372974506	214.33815922757	0.27363017086399638	0	-2
-24.956012118867449	211.20102239148679	0.32842219378866194	0	-2
-33.555780102340357	216.20514939223489	0.31287018387490034	0	-2
-30.231932330796425	212.80345167164447	0.32812096385064271	0	-2
-40.272897990541281	229.63699536959018	0.26148776050432665	0	-2
-42.397849278655457	226.86770493486819	0.28442159000808886	0	-2
-40.61536414895307	223.2197360790544	0.2963001510039211	0	-2
16.937736863090244	215.90717175769083	0.14153801636373667	0	-2
13.452707512411488	216.43535516667575	0.10691494549146888	0	-2
22.817410570699295	215.21129755907427	0.15432233850290558	0	-2
40.615364148953034	223.21973607905429	0.02708367837805243	0	-2
36.227023821883257	216.4788013014367	0.089098233348413644	0	-2
41.361825565573611	219.22878063403931	0.044332347460430778	0	-2
32.413565534443784	212.44362429295458	0.13777985627537079	0	-2
27.117715221295047	212.10156889817111	0.16962202801643655	0	-2
42.397849278655485	226.86770493486807	0	0	-1
2.1207047569620863	217.32505636576371	0.025936598579411767	0	-2
3.2784349671922479	217.29199634842649	0.026200550489903846	0	-2
4.6493436380784967	217.44631609178174	0.029012048908143663	0	-2
5.9971878292601728	217.45924951544501	0.032332748544467188	0	-2
7.8797334103810535	217.76223325747947	0.043018716721363731	0	-2
9.176937231759192	218.33810372756633	0.055554875898492929	0	-2
-1.3978168978821293	217.26976591717718	0.028129744298703272	0	-2
-0.27008360236446338	216.75536972531731	0.022652722316495684	0	-2
0.68943808568438514	216.71450631726253	0.021694575966129913	0	-2
1.6496257513441761	216.73428849784924	0.021583226837062271	0	-2
-3.4253648188748573	217.03779359324599	0.03043578812189544	0	-2
-4.4411505027867788	217.20065446746418	0.035268684948496505	0	-2
-2.4748475005854349	216.64426970880768	0.024701587048715064	0	-2
-6.2895686292196782	217.52734555067434	0.047750136845831723	0	-2
-7.2617474061761378	217.58173802674222	0.05568667291603583	0	-2
-5.584171399350824	216.85614895956954	0.036354273760035589	0	-2
10.481286680120927	217.77860657022364	0.065899462004466031	0	-2
11.536222030037338	217.18546782987815	0.078466602758415452	0	-2
-15.416947786315731	215.1599489985839	0.20868840850876041	0	-2
-17.026351204185108	213.80405429366104	0.25055158061306149	0	-2
-13.408417166370256	215.36720995498294	0.16424524245338945	0	-2
-8.7344937434436023	217.59434006853601	0.071324110640583083	0	-2
-10.181931674035908	217.32219300815365	0.090812795024677456	0	-2
-11.256876935916265	215.95132948676684	0.10563726534779312	0	-2
-12.122771975629149	215.14887710212409	0.1308314677587048	0	-2
-10.777577420144189	216.4421118014439	0.096408716246520018	0	-2
-38.048848238397987	217.76458843093152	0.31664691965255087	0	-2
-19.356265323171218	211.14573838398582	0.31283764145447029	0	-2
-22.182623904901092	208.49068189536152	0.35736775105998259	0	-2
-26.801722160850723	208.48641890937031	0.35804700219360042	0	-2
-34.575248660240455	211.55970051724759	0.34476740537197015	0	-2
-31.36002575536191	208.38579829070957	0.36239531658526791	0	-2
-44.570807708605685	224.13592179003237	0.3065939799751905	0	-2
-43.260982095980232	220.79432446441658	0.31783268072581672	0	-2
17.584196583573981	212.44213249118729	0.19650065253961493	0	-2
13.999401769710149	213.96022692857258	0.14680406456976788	0	-2
12.275497570885516	215.07872823410031	0.098876601864173297	0	-2
11.713074938258055	215.98821046128282	0.083000894360484703	0	-2
22.422066464399109	209.62893564913483	0.22479826845384571	0	-2
44.570807708605685	224.13592179003223	0	0	-1
41.838696263511103	214.9174852909438	0.066163445305467986	0	-2
37.910735493944976	211.66501011623978	0.10966129922726056	0	-2
46.79111137620427	221.44247806269183	0	0	-1
45.137024365336032	217.73452361703389	0.030147710992212452	0	-2
31.344855197097239	206.99541579706602	0.18700395976649661	0	-2
25.877416268727455	204.90353497352001	0.25062070667628894	0	-2
2.8039116196910037	216.39620583700668	0.019257165333738231	0	-2
2.1549242998339344	216.17250964439501	0.017367378373150007	0	-2
4.0714147726419645	216.41394727555706	0.020382894340460658	0	-2
3.4318472222222227	216.11885874941069	0.017490438476676754	0	-2
5.471291034986776	216.76787991505452	0.025543230468411643	0	-2
4.7605801126486105	216.2684308711668	0.020144450743456131	0	-2
7.0809482672460042	216.7254150345471	0.030792713758906368	0	-2
6.4718148645415141	216.2395040872191	0.023918692808921102	0	-2
7.8117812683757553	216.45516316039408	0.032226945804288837	0	-2
8.8191409908419338	216.96466046244703	0.044500840397110962	0	-2
-1.8653550414544724	216.26869605813775	0.020454181004360233	0	-2
-1.2135412930761014	216.18037375645375	0.018921838956162715	0	-2
-0.7195475932965707	215.74605565168727	0.014859802742715884	0	-2
0.49077056604767649	215.45299373152585	0.011860525257930885	0	-2
1.366763696241768	216.03363797078353	0.016264128320888031	0	-2
-3.3418497050960307	216.01243051327771	0.020339489605428744	0	-2
-4.2119899556972928	215.59821137868889	0.017820989070226004	0	-2
-2.813330325090087	215.64239974618803	0.015993713566685754	0	-2
-2.1839322521081104	215.627568000986	0.015097744871126334	0	-2
-6.7645130386401799	216.67733500734116	0.04073407971709251	0	-2
-8.2889639623599258	216.09183966076711	0.045773662882751032	0	-2
-6.1840160942328826	215.82398271473605	0.026564837258021667	0	-2