[Format]      =  1
[Precision]   =  1e-008
[MinAngle]    =  30
[DoSmartMesh] =  1
[Depth]       =  1
[LengthUnits] =  millimeters
[ProblemType] =  axisymmetric
[Coordinates] =  cartesian
[Comment]     =  "Add comments here."
[PointProps]   = 0
[BdryProps]   = 1
  <BeginBdry>
    <BdryName> = "Ground"
    <BdryType> = 0
    <Vs> = 0
    <qs> = 0
    <c0> = 0
    <c1> = 0
  <EndBdry>
[BlockProps]  = 6
  <BeginBlock>
    <BlockName> = "Skin"
    <ex> = 8000
    <ey> = 8000
    <qv> = 0
  <EndBlock>
  <BeginBlock>
    <BlockName> = "Fat"
    <ex> = 40
    <ey> = 40
    <qv> = 0
  <EndBlock>
  <BeginBlock>
    <BlockName> = "Muscle"
    <ex> = 4000
    <ey> = 4000
    <qv> = 0
  <EndBlock>
  <BeginBlock>
    <BlockName> = "Bone"
    <ex> = 200
    <ey> = 200
    <qv> = 0
  <EndBlock>
  <BeginBlock>
    <BlockName> = "Air"
    <ex> = 1
    <ey> = 1
    <qv> = 0
  <EndBlock>
  <BeginBlock>
    <BlockName> = "Copper"
    <ex> = 1
    <ey> = 1
    <qv> = 0
  <EndBlock>
[ConductorProps]  = 4
  <BeginConductor>
    <ConductorName> = "Tx-Positive"
    <Vc> = 1
    <qc> = 0
    <ConductorType> = 1
  <EndConductor>
  <BeginConductor>
    <ConductorName> = "Tx-Negative"
    <Vc> = 0
    <qc> = 0
    <ConductorType> = 1
  <EndConductor>
  <BeginConductor>
    <ConductorName> = "Rx-Positive"
    <Vc> = 0
    <qc> = 0
    <ConductorType> = 0
  <EndConductor>
  <BeginConductor>
    <ConductorName> = "Rx-Negative"
    <Vc> = 0
    <qc> = 0
    <ConductorType> = 0
  <EndConductor>
[NumPoints] = 358
0	0	0	0	0
79	0	0	0	0
79	360	0	0	0
0	360	0	0	0
79	22.5	0	0	0
79	45	0	0	0
79	67.5	0	0	0
79	90	0	0	0
79	112.5	0	0	0
79	135	0	0	0
79	157.5	0	0	0
79	180	0	0	0
79	202.5	0	0	0
79	225	0	0	0
79	247.5	0	0	0
79	270	0	0	0
79	292.5	0	0	0
79	315	0	0	0
79	337.5	0	0	0
77	0	0	0	0
77	22.5	0	0	0
77	45	0	0	0
77	67.5	0	0	0
77	90	0	0	0
77	112.5	0	0	0
77	135	0	0	0
77	157.5	0	0	0
77	180	0	0	0
77	202.5	0	0	0
77	225	0	0	0
77	247.5	0	0	0
77	270	0	0	0
77	292.5	0	0	0
77	315	0	0	0
77	337.5	0	0	0
77	360	0	0	0
60	0	0	0	0
60	22.5	0	0	0
60	45	0	0	0
60	67.5	0	0	0
60	90	0	0	0
60	112.5	0	0	0
60	135	0	0	0
60	157.5	0	0	0
60	180	0	0	0
60	202.5	0	0	0
60	225	0	0	0
60	247.5	0	0	0
60	270	0	0	0
60	292.5	0	0	0
60	315	0	0	0
60	337.5	0	0	0
60	360	0	0	0
14	0	0	0	0
14	22.5	0	0	0
14	45	0	0	0
14	67.5	0	0	0
14	90	0	0	0
14	112.5	0	0	0
14	135	0	0	0
14	157.5	0	0	0
14	180	0	0	0
14	202.5	0	0	0
14	225	0	0	0
14	247.5	0	0	0
14	270	0	0	0
14	292.5	0	0	0
14	315	0	0	0
14	337.5	0	0	0
14	360	0	0	0
79	830	0	0	0
0	830	0	0	0
79	389.375	0	0	0
79	418.75	0	0	0
79	448.125	0	0	0
79	477.5	0	0	0
79	506.875	0	0	0
79	536.25	0	0	0
79	565.625	0	0	0
79	595	0	0	0
79	624.375	0	0	0
79	653.75	0	0	0
79	683.125	0	0	0
79	712.5	0	0	0
79	741.875	0	0	0
79	771.25	0	0	0
79	800.625	0	0	0
77	389.375	0	0	0
77	418.75	0	0	0
77	448.125	0	0	0
77	477.5	0	0	0
77	506.875	0	0	0
77	536.25	0	0	0
77	565.625	0	0	0
77	595	0	0	0
77	624.375	0	0	0
77	653.75	0	0	0
77	683.125	0	0	0
77	712.5	0	0	0
77	741.875	0	0	0
77	771.25	0	0	0
77	800.625	0	0	0
77	830	0	0	0
60	389.375	0	0	0
60	418.75	0	0	0
60	448.125	0	0	0
60	477.5	0	0	0
60	506.875	0	0	0
60	536.25	0	0	0
60	565.625	0	0	0
60	595	0	0	0
60	624.375	0	0	0
60	653.75	0	0	0
60	683.125	0	0	0
60	712.5	0	0	0
60	741.875	0	0	0
60	771.25	0	0	0
60	800.625	0	0	0
60	830	0	0	0
14	389.375	0	0	0
14	418.75	0	0	0
14	448.125	0	0	0
14	477.5	0	0	0
14	506.875	0	0	0
14	536.25	0	0	0
14	565.625	0	0	0
14	595	0	0	0
14	624.375	0	0	0
14	653.75	0	0	0
14	683.125	0	0	0
14	712.5	0	0	0
14	741.875	0	0	0
14	771.25	0	0	0
14	800.625	0	0	0
14	830	0	0	0
115	830	0	0	0
115	1420	0	0	0
0	1420	0	0	0
115	866.875	0	0	0
115	903.75	0	0	0
115	940.625	0	0	0
115	977.5	0	0	0
115	1014.375	0	0	0
115	1051.25	0	0	0
115	1088.125	0	0	0
115	1125	0	0	0
115	1161.875	0	0	0
115	1198.75	0	0	0
115	1235.625	0	0	0
115	1272.5	0	0	0
115	1309.375	0	0	0
115	1346.25	0	0	0
115	1383.125	0	0	0
113.3	830	0	0	0
113.3	866.875	0	0	0
113.3	903.75	0	0	0
113.3	940.625	0	0	0
113.3	977.5	0	0	0
113.3	1014.375	0	0	0
113.3	1051.25	0	0	0
113.3	1088.125	0	0	0
113.3	1125	0	0	0
113.3	1161.875	0	0	0
113.3	1198.75	0	0	0
113.3	1235.625	0	0	0
113.3	1272.5	0	0	0
113.3	1309.375	0	0	0
113.3	1346.25	0	0	0
113.3	1383.125	0	0	0
113.3	1420	0	0	0
91.299999999999997	830	0	0	0
91.299999999999997	866.875	0	0	0
91.299999999999997	903.75	0	0	0
91.299999999999997	940.625	0	0	0
91.299999999999997	977.5	0	0	0
91.299999999999997	1014.375	0	0	0
91.299999999999997	1051.25	0	0	0
91.299999999999997	1088.125	0	0	0
91.299999999999997	1125	0	0	0
91.299999999999997	1161.875	0	0	0
91.299999999999997	1198.75	0	0	0
91.299999999999997	1235.625	0	0	0
91.299999999999997	1272.5	0	0	0
91.299999999999997	1309.375	0	0	0
91.299999999999997	1346.25	0	0	0
91.299999999999997	1383.125	0	0	0
91.299999999999997	1420	0	0	0
60	866.875	0	0	0
60	903.75	0	0	0
60	940.625	0	0	0
60	977.5	0	0	0
60	1014.375	0	0	0
60	1051.25	0	0	0
60	1088.125	0	0	0
60	1125	0	0	0
60	1161.875	0	0	0
60	1198.75	0	0	0
60	1235.625	0	0	0
60	1272.5	0	0	0
60	1309.375	0	0	0
60	1346.25	0	0	0
60	1383.125	0	0	0
60	1420	0	0	0
60	1480	0	0	0
0	1480	0	0	0
60	1423.75	0	0	0
60	1427.5	0	0	0
60	1431.25	0	0	0
60	1435	0	0	0
60	1438.75	0	0	0
60	1442.5	0	0	0
60	1446.25	0	0	0
60	1450	0	0	0
60	1453.75	0	0	0
60	1457.5	0	0	0
60	1461.25	0	0	0
60	1465	0	0	0
60	1468.75	0	0	0
60	1472.5	0	0	0
60	1476.25	0	0	0
58	1420	0	0	0
58	1423.75	0	0	0
58	1427.5	0	0	0
58	1431.25	0	0	0
58	1435	0	0	0
58	1438.75	0	0	0
58	1442.5	0	0	0
58	1446.25	0	0	0
58	1450	0	0	0
58	1453.75	0	0	0
58	1457.5	0	0	0
58	1461.25	0	0	0
58	1465	0	0	0
58	1468.75	0	0	0
58	1472.5	0	0	0
58	1476.25	0	0	0
58	1480	0	0	0
41	1420	0	0	0
41	1423.75	0	0	0
41	1427.5	0	0	0
41	1431.25	0	0	0
41	1435	0	0	0
41	1438.75	0	0	0
41	1442.5	0	0	0
41	1446.25	0	0	0
41	1450	0	0	0
41	1453.75	0	0	0
41	1457.5	0	0	0
41	1461.25	0	0	0
41	1465	0	0	0
41	1468.75	0	0	0
41	1472.5	0	0	0
41	1476.25	0	0	0
41	1480	0	0	0
23	1420	0	0	0
23	1423.75	0	0	0
23	1427.5	0	0	0
23	1431.25	0	0	0
23	1435	0	0	0
23	1438.75	0	0	0
23	1442.5	0	0	0
23	1446.25	0	0	0
23	1450	0	0	0
23	1453.75	0	0	0
23	1457.5	0	0	0
23	1461.25	0	0	0
23	1465	0	0	0
23	1468.75	0	0	0
23	1472.5	0	0	0
23	1476.25	0	0	0
23	1480	0	0	0
80	1480	0	0	0
80	1690	0	0	0
0	1690	0	0	0
80	1493.125	0	0	0
80	1506.25	0	0	0
80	1519.375	0	0	0
80	1532.5	0	0	0
80	1545.625	0	0	0
80	1558.75	0	0	0
80	1571.875	0	0	0
80	1585	0	0	0
80	1598.125	0	0	0
80	1611.25	0	0	0
80	1624.375	0	0	0
80	1637.5	0	0	0
80	1650.625	0	0	0
80	1663.75	0	0	0
80	1676.875	0	0	0
78	1480	0	0	0
78	1493.125	0	0	0
78	1506.25	0	0	0
78	1519.375	0	0	0
78	1532.5	0	0	0
78	1545.625	0	0	0
78	1558.75	0	0	0
78	1571.875	0	0	0
78	1585	0	0	0
78	1598.125	0	0	0
78	1611.25	0	0	0
78	1624.375	0	0	0
78	1637.5	0	0	0
78	1650.625	0	0	0
78	1663.75	0	0	0
78	1676.875	0	0	0
78	1690	0	0	0
75	1480	0	0	0
75	1493.125	0	0	0
75	1506.25	0	0	0
75	1519.375	0	0	0
75	1532.5	0	0	0
75	1545.625	0	0	0
75	1558.75	0	0	0
75	1571.875	0	0	0
75	1585	0	0	0
75	1598.125	0	0	0
75	1611.25	0	0	0
75	1624.375	0	0	0
75	1637.5	0	0	0
75	1650.625	0	0	0
75	1663.75	0	0	0
75	1676.875	0	0	0
75	1690	0	0	0
71	1480	0	0	0
71	1493.125	0	0	0
71	1506.25	0	0	0
71	1519.375	0	0	0
71	1532.5	0	0	0
71	1545.625	0	0	0
71	1558.75	0	0	0
71	1571.875	0	0	0
71	1585	0	0	0
71	1598.125	0	0	0
71	1611.25	0	0	0
71	1624.375	0	0	0
71	1637.5	0	0	0
71	1650.625	0	0	0
71	1663.75	0	0	0
71	1676.875	0	0	0
71	1690	0	0	0
96.700000000000003	1065	0	0	0
96.700000000000003	1085	0	0	0
98.700000000000003	1065	0	0	0
98.700000000000003	1085	0	0	0
96.700000000000003	1115	0	0	0
96.700000000000003	1135	0	0	0
98.700000000000003	1115	0	0	0
98.700000000000003	1135	0	0	0
115	1090	0	0	0
115	1110	0	0	0
117	1090	0	0	0
117	1110	0	0	0
115	1140	0	0	0
115	1160	0	0	0
117	1140	0	0	0
117	1160	0	0	0
300	-50	0	0	0
300	1790	0	0	0
[NumSegments] = 380
1	4	-1	0	0	0	0
4	5	-1	0	0	0	0
5	6	-1	0	0	0	0
6	7	-1	0	0	0	0
7	8	-1	0	0	0	0
8	9	-1	0	0	0	0
9	10	-1	0	0	0	0
10	11	-1	0	0	0	0
11	12	-1	0	0	0	0
12	13	-1	0	0	0	0
13	14	-1	0	0	0	0
14	15	-1	0	0	0	0
15	16	-1	0	0	0	0
16	17	-1	0	0	0	0
17	18	-1	0	0	0	0
18	2	-1	0	0	0	0
0	53	-1	0	0	0	0
3	69	-1	0	0	0	0
0	3	-1	0	0	0	0
19	1	-1	0	0	0	0
19	20	-1	0	0	0	0
20	21	-1	0	0	0	0
21	22	-1	0	0	0	0
22	23	-1	0	0	0	0
23	24	-1	0	0	0	0
24	25	-1	0	0	0	0
25	26	-1	0	0	0	0
26	27	-1	0	0	0	0
27	28	-1	0	0	0	0
28	29	-1	0	0	0	0
29	30	-1	0	0	0	0
30	31	-1	0	0	0	0
31	32	-1	0	0	0	0
32	33	-1	0	0	0	0
33	34	-1	0	0	0	0
35	2	-1	0	0	0	0
34	35	-1	0	0	0	0
36	19	-1	0	0	0	0
36	37	-1	0	0	0	0
37	38	-1	0	0	0	0
38	39	-1	0	0	0	0
39	40	-1	0	0	0	0
40	41	-1	0	0	0	0
41	42	-1	0	0	0	0
42	43	-1	0	0	0	0
43	44	-1	0	0	0	0
44	45	-1	0	0	0	0
45	46	-1	0	0	0	0
46	47	-1	0	0	0	0
47	48	-1	0	0	0	0
48	49	-1	0	0	0	0
49	50	-1	0	0	0	0
50	51	-1	0	0	0	0
52	35	-1	0	0	0	0
51	52	-1	0	0	0	0
53	36	-1	0	0	0	0
53	54	-1	0	0	0	0
54	55	-1	0	0	0	0
55	56	-1	0	0	0	0
56	57	-1	0	0	0	0
57	58	-1	0	0	0	0
58	59	-1	0	0	0	0
59	60	-1	0	0	0	0
60	61	-1	0	0	0	0
61	62	-1	0	0	0	0
62	63	-1	0	0	0	0
63	64	-1	0	0	0	0
64	65	-1	0	0	0	0
65	66	-1	0	0	0	0
66	67	-1	0	0	0	0
67	68	-1	0	0	0	0
69	52	-1	0	0	0	0
68	69	-1	0	0	0	0
2	72	-1	0	0	0	0
72	73	-1	0	0	0	0
73	74	-1	0	0	0	0
74	75	-1	0	0	0	0
75	76	-1	0	0	0	0
76	77	-1	0	0	0	0
77	78	-1	0	0	0	0
78	79	-1	0	0	0	0
79	80	-1	0	0	0	0
80	81	-1	0	0	0	0
81	82	-1	0	0	0	0
82	83	-1	0	0	0	0
83	84	-1	0	0	0	0
84	85	-1	0	0	0	0
85	86	-1	0	0	0	0
86	70	-1	0	0	0	0
71	134	-1	0	0	0	0
3	71	-1	0	0	0	0
35	87	-1	0	0	0	0
87	88	-1	0	0	0	0
88	89	-1	0	0	0	0
89	90	-1	0	0	0	0
90	91	-1	0	0	0	0
91	92	-1	0	0	0	0
92	93	-1	0	0	0	0
93	94	-1	0	0	0	0
94	95	-1	0	0	0	0
95	96	-1	0	0	0	0
96	97	-1	0	0	0	0
97	98	-1	0	0	0	0
98	99	-1	0	0	0	0
99	100	-1	0	0	0	0
100	101	-1	0	0	0	0
102	70	-1	0	0	0	0
101	102	-1	0	0	0	0
52	103	-1	0	0	0	0
103	104	-1	0	0	0	0
104	105	-1	0	0	0	0
105	106	-1	0	0	0	0
106	107	-1	0	0	0	0
107	108	-1	0	0	0	0
108	109	-1	0	0	0	0
109	110	-1	0	0	0	0
110	111	-1	0	0	0	0
111	112	-1	0	0	0	0
112	113	-1	0	0	0	0
113	114	-1	0	0	0	0
114	115	-1	0	0	0	0
115	116	-1	0	0	0	0
116	117	-1	0	0	0	0
118	102	-1	0	0	0	0
117	118	-1	0	0	0	0
69	119	-1	0	0	0	0
119	120	-1	0	0	0	0
120	121	-1	0	0	0	0
121	122	-1	0	0	0	0
122	123	-1	0	0	0	0
123	124	-1	0	0	0	0
124	125	-1	0	0	0	0
125	126	-1	0	0	0	0
126	127	-1	0	0	0	0
127	128	-1	0	0	0	0
128	129	-1	0	0	0	0
129	130	-1	0	0	0	0
130	131	-1	0	0	0	0
131	132	-1	0	0	0	0
132	133	-1	0	0	0	0
134	118	-1	0	0	0	0
133	134	-1	0	0	0	0
135	138	-1	0	0	0	0
138	139	-1	0	0	0	0
139	140	-1	0	0	0	0
140	141	-1	0	0	0	0
141	142	-1	0	0	0	0
142	143	-1	0	0	0	0
143	144	-1	0	0	0	0
144	348	-1	0	0	0	0
145	352	-1	0	0	0	0
146	147	-1	0	0	0	0
147	148	-1	0	0	0	0
148	149	-1	0	0	0	0
149	150	-1	0	0	0	0
150	151	-1	0	0	0	0
151	152	-1	0	0	0	0
152	136	-1	0	0	0	0
70	170	-1	0	0	0	0
137	254	-1	0	0	0	0
71	137	-1	0	0	0	0
153	135	-1	0	0	0	0
153	154	-1	0	0	0	0
154	155	-1	0	0	0	0
155	156	-1	0	0	0	0
156	157	-1	0	0	0	0
157	158	-1	0	0	0	0
158	159	-1	0	0	0	0
159	160	-1	0	0	0	0
160	161	-1	0	0	0	0
161	162	-1	0	0	0	0
162	163	-1	0	0	0	0
163	164	-1	0	0	0	0
164	165	-1	0	0	0	0
165	166	-1	0	0	0	0
166	167	-1	0	0	0	0
167	168	-1	0	0	0	0
169	136	-1	0	0	0	0
168	169	-1	0	0	0	0
170	153	-1	0	0	0	0
170	171	-1	0	0	0	0
171	172	-1	0	0	0	0
172	173	-1	0	0	0	0
173	174	-1	0	0	0	0
174	175	-1	0	0	0	0
175	176	-1	0	0	0	0
176	177	-1	0	0	0	0
177	178	-1	0	0	0	0
178	179	-1	0	0	0	0
179	180	-1	0	0	0	0
180	181	-1	0	0	0	0
181	182	-1	0	0	0	0
182	183	-1	0	0	0	0
183	184	-1	0	0	0	0
184	185	-1	0	0	0	0
186	169	-1	0	0	0	0
185	186	-1	0	0	0	0
118	187	-1	0	0	0	0
187	188	-1	0	0	0	0
188	189	-1	0	0	0	0
189	190	-1	0	0	0	0
190	191	-1	0	0	0	0
191	192	-1	0	0	0	0
192	193	-1	0	0	0	0
193	194	-1	0	0	0	0
194	195	-1	0	0	0	0
195	196	-1	0	0	0	0
196	197	-1	0	0	0	0
197	198	-1	0	0	0	0
198	199	-1	0	0	0	0
199	200	-1	0	0	0	0
200	201	-1	0	0	0	0
202	186	-1	0	0	0	0
201	202	-1	0	0	0	0
202	205	-1	0	0	0	0
205	206	-1	0	0	0	0
206	207	-1	0	0	0	0
207	208	-1	0	0	0	0
208	209	-1	0	0	0	0
209	210	-1	0	0	0	0
210	211	-1	0	0	0	0
211	212	-1	0	0	0	0
212	213	-1	0	0	0	0
213	214	-1	0	0	0	0
214	215	-1	0	0	0	0
215	216	-1	0	0	0	0
216	217	-1	0	0	0	0
217	218	-1	0	0	0	0
218	219	-1	0	0	0	0
219	203	-1	0	0	0	0
204	270	-1	0	0	0	0
137	204	-1	0	0	0	0
220	202	-1	0	0	0	0
220	221	-1	0	0	0	0
221	222	-1	0	0	0	0
222	223	-1	0	0	0	0
223	224	-1	0	0	0	0
224	225	-1	0	0	0	0
225	226	-1	0	0	0	0
226	227	-1	0	0	0	0
227	228	-1	0	0	0	0
228	229	-1	0	0	0	0
229	230	-1	0	0	0	0
230	231	-1	0	0	0	0
231	232	-1	0	0	0	0
232	233	-1	0	0	0	0
233	234	-1	0	0	0	0
234	235	-1	0	0	0	0
236	203	-1	0	0	0	0
235	236	-1	0	0	0	0
237	220	-1	0	0	0	0
237	238	-1	0	0	0	0
238	239	-1	0	0	0	0
239	240	-1	0	0	0	0
240	241	-1	0	0	0	0
241	242	-1	0	0	0	0
242	243	-1	0	0	0	0
243	244	-1	0	0	0	0
244	245	-1	0	0	0	0
245	246	-1	0	0	0	0
246	247	-1	0	0	0	0
247	248	-1	0	0	0	0
248	249	-1	0	0	0	0
249	250	-1	0	0	0	0
250	251	-1	0	0	0	0
251	252	-1	0	0	0	0
253	236	-1	0	0	0	0
252	253	-1	0	0	0	0
254	237	-1	0	0	0	0
254	255	-1	0	0	0	0
255	256	-1	0	0	0	0
256	257	-1	0	0	0	0
257	258	-1	0	0	0	0
258	259	-1	0	0	0	0
259	260	-1	0	0	0	0
260	261	-1	0	0	0	0
261	262	-1	0	0	0	0
262	263	-1	0	0	0	0
263	264	-1	0	0	0	0
264	265	-1	0	0	0	0
265	266	-1	0	0	0	0
266	267	-1	0	0	0	0
267	268	-1	0	0	0	0
268	269	-1	0	0	0	0
270	253	-1	0	0	0	0
269	270	-1	0	0	0	0
271	274	-1	0	0	0	0
274	275	-1	0	0	0	0
275	276	-1	0	0	0	0
276	277	-1	0	0	0	0
277	278	-1	0	0	0	0
278	279	-1	0	0	0	0
279	280	-1	0	0	0	0
280	281	-1	0	0	0	0
281	282	-1	0	0	0	0
282	283	-1	0	0	0	0
283	284	-1	0	0	0	0
284	285	-1	0	0	0	0
285	286	-1	0	0	0	0
286	287	-1	0	0	0	0
287	288	-1	0	0	0	0
288	272	-1	0	0	0	0
203	323	-1	0	0	0	0
273	339	-1	0	0	0	0
204	273	-1	0	0	0	0
289	271	-1	0	0	0	0
289	290	-1	0	0	0	0
290	291	-1	0	0	0	0
291	292	-1	0	0	0	0
292	293	-1	0	0	0	0
293	294	-1	0	0	0	0
294	295	-1	0	0	0	0
295	296	-1	0	0	0	0
296	297	-1	0	0	0	0
297	298	-1	0	0	0	0
298	299	-1	0	0	0	0
299	300	-1	0	0	0	0
300	301	-1	0	0	0	0
301	302	-1	0	0	0	0
302	303	-1	0	0	0	0
303	304	-1	0	0	0	0
305	272	-1	0	0	0	0
304	305	-1	0	0	0	0
306	289	-1	0	0	0	0
306	307	-1	0	0	0	0
307	308	-1	0	0	0	0
308	309	-1	0	0	0	0
309	310	-1	0	0	0	0
310	311	-1	0	0	0	0
311	312	-1	0	0	0	0
312	313	-1	0	0	0	0
313	314	-1	0	0	0	0
314	315	-1	0	0	0	0
315	316	-1	0	0	0	0
316	317	-1	0	0	0	0
317	318	-1	0	0	0	0
318	319	-1	0	0	0	0
319	320	-1	0	0	0	0
320	321	-1	0	0	0	0
322	305	-1	0	0	0	0
321	322	-1	0	0	0	0
323	306	-1	0	0	0	0
323	324	-1	0	0	0	0
324	325	-1	0	0	0	0
325	326	-1	0	0	0	0
326	327	-1	0	0	0	0
327	328	-1	0	0	0	0
328	329	-1	0	0	0	0
329	330	-1	0	0	0	0
330	331	-1	0	0	0	0
331	332	-1	0	0	0	0
332	333	-1	0	0	0	0
333	334	-1	0	0	0	0
334	335	-1	0	0	0	0
335	336	-1	0	0	0	0
336	337	-1	0	0	0	0
337	338	-1	0	0	0	0
339	322	-1	0	0	0	0
338	339	-1	0	0	0	0
340	341	-1	0	0	0	1
342	343	-1	0	0	0	0
340	342	-1	0	0	0	0
341	343	-1	0	0	0	0
344	345	-1	0	0	0	2
346	347	-1	0	0	0	0
344	346	-1	0	0	0	0
345	347	-1	0	0	0	0
348	349	-1	0	0	0	3
349	145	-1	0	0	0	0
350	351	-1	0	0	0	0
348	350	-1	0	0	0	0
349	351	-1	0	0	0	0
352	353	-1	0	0	0	4
353	146	-1	0	0	0	0
354	355	-1	0	0	0	0
352	354	-1	0	0	0	0
353	355	-1	0	0	0	0
356	357	-1	1	0	0	0
0	356	-1	0	0	0	0
273	357	-1	0	0	0	0
[NumArcSegments] = 0
[NumHoles] = 0
[NumBlockLabels] = 25
7	180	4	-1	0	0
37	180	3	-1	0	0
68.5	180	2	-1	0	0
78	180	1	-1	0	0
7	595	4	-1	0	0
37	595	3	-1	0	0
68.5	595	2	-1	0	0
78	595	1	-1	0	0
30	1125	4	-1	0	0
75.650000000000006	1125	3	-1	0	0
102.3	1125	2	-1	0	0
114.15000000000001	1125	1	-1	0	0
11.5	1450	4	-1	0	0
32	1450	3	-1	0	0
49.5	1450	2	-1	0	0
59	1450	1	-1	0	0
35.5	1585	4	-1	0	0
73	1585	3	-1	0	0
76.5	1585	2	-1	0	0
79	1585	1	-1	0	0
97.700000000000003	1075	6	-1	0	0
97.700000000000003	1125	6	-1	0	0
116	1100	6	-1	0	0
116	1150	6	-1	0	0
250	0	5	-1	0	0
