[Format]      =  1
[Precision]   =  1e-008
[MinAngle]    =  30
[DoSmartMesh] =  1
[Depth]       =  1
[LengthUnits] =  centimeters
[ProblemType] =  planar
[Coordinates] =  cartesian
[Comment]     =  "Add comments here."
[PointProps]   = 0
[BdryProps]   = 1
  <BeginBdry>
    <BdryName> = "Ground"
    <BdryType> = 0
    <Vs> = 0
    <qs> = 0
    <c0> = 0
    <c1> = 0
  <EndBdry>
[BlockProps]  = 4
  <BeginBlock>
    <BlockName> = "Skin"
    <ex> = 1200
    <ey> = 1200
    <qv> = 0
  <EndBlock>
  <BeginBlock>
    <BlockName> = "Muscle"
    <ex> = 7000
    <ey> = 7000
    <qv> = 0
  <EndBlock>
  <BeginBlock>
    <BlockName> = "Air"
    <ex> = 1
    <ey> = 1
    <qv> = 0
  <EndBlock>
  <BeginBlock>
    <BlockName> = "Copper"
    <ex> = 1
    <ey> = 1
    <qv> = 0
  <EndBlock>
[ConductorProps]  = 4
  <BeginConductor>
    <ConductorName> = "Tx-Positive"
    <Vc> = 1
    <qc> = 0
    <ConductorType> = 1
  <EndConductor>
  <BeginConductor>
    <ConductorName> = "Tx-Negative"
    <Vc> = 0
    <qc> = 0
    <ConductorType> = 1
  <EndConductor>
  <BeginConductor>
    <ConductorName> = "Rx-Positive"
    <Vc> = 0
    <qc> = 0
    <ConductorType> = 0
  <EndConductor>
  <BeginConductor>
    <ConductorName> = "Rx-Negative"
    <Vc> = 0
    <qc> = 0
    <ConductorType> = 0
  <EndConductor>
[NumPoints] = 34
-100	0	0	0	0
100	0	0	0	0
100	1	0	0	0
-100	1	0	0	0
100	1.1000000000000001	0	0	0
-100	1.1000000000000001	0	0	0
-5	2.1000000000000001	0	0	0
-4	1.1000000000000001	0	0	0
-5	0.10000000000000009	0	0	0
-6	1.1000000000000001	0	0	0
-4.4358898943540623	1	0	0	0
-5.5641101056459323	1	0	0	0
5	2.1000000000000001	0	0	0
6	1.1000000000000001	0	0	0
5	0.10000000000000009	0	0	0
4	1.1000000000000001	0	0	0
5.5641101056459377	1	0	0	0
4.4358898943540677	1	0	0	0
45	2.1000000000000001	0	0	0
46	1.1000000000000001	0	0	0
45	0.10000000000000009	0	0	0
44	1.1000000000000001	0	0	0
45.564110105645931	1	0	0	0
44.435889894354069	1	0	0	0
55	2.1000000000000001	0	0	0
56	1.1000000000000001	0	0	0
55	0.10000000000000009	0	0	0
54	1.1000000000000001	0	0	0
55.564110105645931	1	0	0	0
54.435889894354069	1	0	0	0
-120	-20	0	0	0
120	-20	0	0	0
120	21.100000000000001	0	0	0
-120	21.100000000000001	0	0	0
[NumSegments] = 27
0	1	-1	0	0	0	0
1	2	-1	0	0	0	0
2	28	-1	0	0	0	0
3	0	-1	0	0	0	0
2	4	-1	0	0	0	0
4	25	-1	0	0	0	0
5	3	-1	0	0	0	0
7	9	-1	0	0	0	0
9	5	-1	0	0	0	0
10	11	-1	0	0	0	0
11	3	-1	0	0	0	0
13	15	-1	0	0	0	0
15	7	-1	0	0	0	0
16	17	-1	0	0	0	0
17	10	-1	0	0	0	0
19	21	-1	0	0	0	0
21	13	-1	0	0	0	0
22	23	-1	0	0	0	0
23	16	-1	0	0	0	0
25	27	-1	0	0	0	0
27	19	-1	0	0	0	0
28	29	-1	0	0	0	0
29	22	-1	0	0	0	0
30	31	-1	1	0	0	0
31	32	-1	1	0	0	0
32	33	-1	1	0	0	0
33	30	-1	1	0	0	0
[NumArcSegments] = 24
6	7	90	1	0	0	0	1	1
7	10	25.841932763166874	1	0	0	0	0	1
10	8	64.158067236833119	1	0	0	0	0	1
8	11	64.158067236832849	1	0	0	0	0	1
11	9	25.841932763167144	1	0	0	0	0	1
9	6	90	1	0	0	0	0	1
12	13	90	1	0	0	0	2	1
13	16	25.841932763166874	1	0	0	0	0	1
16	14	64.158067236833119	1	0	0	0	0	1
14	17	64.158067236832849	1	0	0	0	0	1
17	15	25.841932763167144	1	0	0	0	0	1
15	12	90	1	0	0	0	0	1
18	19	90	1	0	0	0	3	1
19	22	25.84193276316724	1	0	0	0	0	1
22	20	64.158067236832764	1	0	0	0	0	1
20	23	64.158067236832764	1	0	0	0	0	1
23	21	25.841932763167236	1	0	0	0	0	1
21	18	90	1	0	0	0	0	1
24	25	90	1	0	0	0	4	1
25	28	25.84193276316724	1	0	0	0	0	1
28	26	64.158067236832764	1	0	0	0	0	1
26	29	64.158067236832764	1	0	0	0	0	1
29	27	25.841932763167236	1	0	0	0	0	1
27	24	90	1	0	0	0	0	1
[NumHoles] = 0
[NumBlockLabels] = 3
0	0.5	2	-1	0	0
0	1.05	4	-1	0	0
-115	-15	3	-1	0	0
