[Format]      =  1
[Precision]   =  1e-008
[MinAngle]    =  30
[DoSmartMesh] =  1
[Depth]       =  1
[LengthUnits] =  millimeters
[ProblemType] =  axisymmetric
[Coordinates] =  cartesian
[Comment]     =  "Add comments here."
[PointProps]   = 0
[BdryProps]   = 1
  <BeginBdry>
    <BdryName> = "Ground"
    <BdryType> = 0
    <Vs> = 0
    <qs> = 0
    <c0> = 0
    <c1> = 0
  <EndBdry>
[BlockProps]  = 6
  <BeginBlock>
    <BlockName> = "Skin"
    <ex> = 8000
    <ey> = 8000
    <qv> = 0
  <EndBlock>
  <BeginBlock>
    <BlockName> = "Fat"
    <ex> = 40
    <ey> = 40
    <qv> = 0
  <EndBlock>
  <BeginBlock>
    <BlockName> = "Muscle"
    <ex> = 4000
    <ey> = 4000
    <qv> = 0
  <EndBlock>
  <BeginBlock>
    <BlockName> = "Bone"
    <ex> = 200
    <ey> = 200
    <qv> = 0
  <EndBlock>
  <BeginBlock>
    <BlockName> = "Air"
    <ex> = 1
    <ey> = 1
    <qv> = 0
  <EndBlock>
  <BeginBlock>
    <BlockName> = "Copper"
    <ex> = 1
    <ey> = 1
    <qv> = 0
  <EndBlock>
[ConductorProps]  = 4
  <BeginConductor>
    <ConductorName> = "Tx-Positive"
    <Vc> = 1
    <qc> = 0
    <ConductorType> = 1
  <EndConductor>
  <BeginConductor>
    <ConductorName> = "Tx-Negative"
    <Vc> = 0
    <qc> = 0
    <ConductorType> = 1
  <EndConductor>
  <BeginConductor>
    <ConductorName> = "Rx-Positive"
    <Vc> = 0
    <qc> = 0
    <ConductorType> = 0
  <EndConductor>
  <BeginConductor>
    <ConductorName> = "Rx-Negative"
    <Vc> = 0
    <qc> = 0
    <ConductorType> = 0
  <EndConductor>
[NumPoints] = 61
0	0	0	0	0
0	360	0	0	0
14	0	0	0	0
14	360	0	0	0
35.5	0	0	0	0
35.5	360	0	0	0
52.5	0	0	0	0
52.5	360	0	0	0
54.5	0	0	0	0
54.5	360	0	0	0
0	830	0	0	0
14	830	0	0	0
60	360	0	0	0
60	830	0	0	0
77	360	0	0	0
77	830	0	0	0
79	360	0	0	0
79	830	0	0	0
0	1420	0	0	0
60	1420	0	0	0
91.299999999999997	830	0	0	0
91.299999999999997	1420	0	0	0
113.3	830	0	0	0
113.3	1420	0	0	0
115	830	0	0	0
115	1420	0	0	0
0	1480	0	0	0
23	1420	0	0	0
23	1480	0	0	0
41	1420	0	0	0
41	1480	0	0	0
58	1420	0	0	0
58	1480	0	0	0
60	1480	0	0	0
0	1690	0	0	0
71	1480	0	0	0
71	1690	0	0	0
75	1480	0	0	0
75	1690	0	0	0
78	1480	0	0	0
78	1690	0	0	0
80	1480	0	0	0
80	1690	0	0	0
96.700000000000003	1065	0	0	0
96.700000000000003	1085	0	0	0
98.700000000000003	1065	0	0	0
98.700000000000003	1085	0	0	0
96.700000000000003	1115	0	0	0
96.700000000000003	1135	0	0	0
98.700000000000003	1115	0	0	0
98.700000000000003	1135	0	0	0
115	1090	0	0	0
115	1110	0	0	0
117	1090	0	0	0
117	1110	0	0	0
115	1140	0	0	0
115	1160	0	0	0
117	1140	0	0	0
117	1160	0	0	0
300	-50	0	0	0
300	1740	0	0	0
[NumSegments] = 83
0	1	-1	0	0	0	0
2	3	-1	0	0	0	0
4	5	-1	0	0	0	0
6	7	-1	0	0	0	0
8	9	-1	0	0	0	0
0	2	-1	0	0	0	0
2	4	-1	0	0	0	0
4	6	-1	0	0	0	0
6	8	-1	0	0	0	0
1	3	-1	0	0	0	0
3	5	-1	0	0	0	0
5	7	-1	0	0	0	0
7	9	-1	0	0	0	0
1	10	-1	0	0	0	0
3	11	-1	0	0	0	0
12	13	-1	0	0	0	0
14	15	-1	0	0	0	0
16	17	-1	0	0	0	0
9	12	-1	0	0	0	0
12	14	-1	0	0	0	0
14	16	-1	0	0	0	0
10	11	-1	0	0	0	0
11	13	-1	0	0	0	0
13	15	-1	0	0	0	0
15	17	-1	0	0	0	0
10	18	-1	0	0	0	0
13	19	-1	0	0	0	0
20	21	-1	0	0	0	0
22	23	-1	0	0	0	0
24	51	-1	0	0	0	0
17	20	-1	0	0	0	0
20	22	-1	0	0	0	0
22	24	-1	0	0	0	0
18	27	-1	0	0	0	0
19	21	-1	0	0	0	0
21	23	-1	0	0	0	0
23	25	-1	0	0	0	0
18	26	-1	0	0	0	0
27	29	-1	0	0	0	0
27	28	-1	0	0	0	0
29	31	-1	0	0	0	0
29	30	-1	0	0	0	0
31	19	-1	0	0	0	0
31	32	-1	0	0	0	0
19	33	-1	0	0	0	0
26	28	-1	0	0	0	0
28	30	-1	0	0	0	0
30	32	-1	0	0	0	0
32	33	-1	0	0	0	0
26	34	-1	0	0	0	0
35	36	-1	0	0	0	0
37	38	-1	0	0	0	0
39	40	-1	0	0	0	0
41	42	-1	0	0	0	0
33	35	-1	0	0	0	0
35	37	-1	0	0	0	0
37	39	-1	0	0	0	0
39	41	-1	0	0	0	0
34	36	-1	0	0	0	0
36	38	-1	0	0	0	0
38	40	-1	0	0	0	0
40	42	-1	0	0	0	0
43	44	-1	0	0	0	1
45	46	-1	0	0	0	0
43	45	-1	0	0	0	0
44	46	-1	0	0	0	0
47	48	-1	0	0	0	2
49	50	-1	0	0	0	0
47	49	-1	0	0	0	0
48	50	-1	0	0	0	0
51	52	-1	0	0	0	3
52	55	-1	0	0	0	0
53	54	-1	0	0	0	0
51	53	-1	0	0	0	0
52	54	-1	0	0	0	0
55	56	-1	0	0	0	4
56	25	-1	0	0	0	0
57	58	-1	0	0	0	0
55	57	-1	0	0	0	0
56	58	-1	0	0	0	0
59	60	-1	1	0	0	0
0	59	-1	0	0	0	0
34	60	-1	0	0	0	0
[NumArcSegments] = 0
[NumHoles] = 0
[NumBlockLabels] = 25
7	180	4	-1	0	0
24.75	180	3	-1	0	0
44	180	2	-1	0	0
53.5	180	1	-1	0	0
7	595	4	-1	0	0
37	595	3	-1	0	0
68.5	595	2	-1	0	0
78	595	1	-1	0	0
30	1125	4	-1	0	0
75.650000000000006	1125	3	-1	0	0
102.3	1125	2	-1	0	0
114.15000000000001	1125	1	-1	0	0
11.5	1450	4	-1	0	0
32	1450	3	-1	0	0
49.5	1450	2	-1	0	0
59	1450	1	-1	0	0
35.5	1585	4	-1	0	0
73	1585	3	-1	0	0
76.5	1585	2	-1	0	0
79	1585	1	-1	0	0
97.700000000000003	1075	6	-1	0	0
97.700000000000003	1125	6	-1	0	0
116	1100	6	-1	0	0
116	1150	6	-1	0	0
200	0	5	-1	0	0
