[Format]      =  1
[Precision]   =  1e-008
[Frequency]   =  0
[MinAngle]    =  30
[DoSmartMesh] =  1
[Depth]       =  30
[LengthUnits] =  millimeters
[ProblemType] =  axisymmetric
[Coordinates] =  cartesian
[Comment]     =  "Add comments here."
[PointProps]   = 0
[BdryProps]   = 2
  <BeginBdry>
    <BdryName> = "Voltage_High"
    <BdryType> = 0
    <vsr> = 1
    <vsi> = 0
    <qsr> = 0
    <qsi> = 0
    <c0r>  = 0
    <c0i>  = 0
    <c1r>  = 0
    <c1i>  = 0
  <EndBdry>
  <BeginBdry>
    <BdryName> = "Voltage_Ground"
    <BdryType> = 0
    <vsr> = 0
    <vsi> = 0
    <qsr> = 0
    <qsi> = 0
    <c0r>  = 0
    <c0i>  = 0
    <c1r>  = 0
    <c1i>  = 0
  <EndBdry>
[BlockProps]  = 6
  <BeginBlock>
    <BlockName> = "Skin"
    <ox> = 0.040000000000000001
    <oy> = 0.040000000000000001
    <ex> = 0
    <ey> = 0
    <ltx> = 0
    <lty> = 0
  <EndBlock>
  <BeginBlock>
    <BlockName> = "Fat"
    <ox> = 0.028000000000000001
    <oy> = 0.028000000000000001
    <ex> = 0
    <ey> = 0
    <ltx> = 0
    <lty> = 0
  <EndBlock>
  <BeginBlock>
    <BlockName> = "Muscle"
    <ox> = 0.39000000000000001
    <oy> = 0.39000000000000001
    <ex> = 0
    <ey> = 0
    <ltx> = 0
    <lty> = 0
  <EndBlock>
  <BeginBlock>
    <BlockName> = "Bone"
    <ox> = 0.02
    <oy> = 0.02
    <ex> = 0
    <ey> = 0
    <ltx> = 0
    <lty> = 0
  <EndBlock>
  <BeginBlock>
    <BlockName> = "Copper"
    <ox> = 59900000
    <oy> = 59900000
    <ex> = 0
    <ey> = 0
    <ltx> = 0
    <lty> = 0
  <EndBlock>
  <BeginBlock>
    <BlockName> = "Air"
    <ox> = 1e-010
    <oy> = 1e-010
    <ex> = 0
    <ey> = 0
    <ltx> = 0
    <lty> = 0
  <EndBlock>
[ConductorProps]  = 0
[NumPoints] = 56
0	0	0	0	0
14	0	0	0	0
14	470	0	0	0
0	470	0	0	0
60	0	0	0	0
60	470	0	0	0
77	0	0	0	0
77	470	0	0	0
79	0	0	0	0
79	470	0	0	0
77	1060	0	0	0
0	1060	0	0	0
104	470	0	0	0
104	1060	0	0	0
126	470	0	0	0
126	1060	0	0	0
127.7	470	0	0	0
127.7	1060	0	0	0
23	1060	0	0	0
23	1120	0	0	0
0	1120	0	0	0
40	1060	0	0	0
40	1120	0	0	0
57	1060	0	0	0
57	1120	0	0	0
60	1060	0	0	0
60	1120	0	0	0
71	1120	0	0	0
71	1280	0	0	0
0	1280	0	0	0
75	1120	0	0	0
75	1280	0	0	0
78	1120	0	0	0
78	1280	0	0	0
80	1120	0	0	0
80	1280	0	0	0
137.69999999999999	600	0	0	0
197.69999999999999	600	0	0	0
197.69999999999999	920	0	0	0
137.69999999999999	920	0	0	0
220.69999999999999	600	0	0	0
220.69999999999999	920	0	0	0
232.69999999999999	600	0	0	0
232.69999999999999	920	0	0	0
234.39999999999998	600	0	0	0
234.39999999999998	920	0	0	0
127.7	925	0	0	0
127.7	945	0	0	0
128.69999999999999	945	0	0	0
128.69999999999999	925	0	0	0
127.7	845	0	0	0
127.7	865	0	0	0
128.69999999999999	865	0	0	0
128.69999999999999	845	0	0	0
300	0	0	0	0
300	1280	0	0	0
[NumSegments] = 75
0	1	-1	0	0	0	0
1	2	-1	0	0	0	0
2	3	-1	0	0	0	0
3	0	-1	0	0	0	0
1	4	-1	0	0	0	0
4	5	-1	0	0	0	0
5	2	-1	0	0	0	0
4	6	-1	0	0	0	0
6	7	-1	0	0	0	0
7	5	-1	0	0	0	0
6	8	-1	0	0	0	0
8	9	-1	0	0	0	0
9	7	-1	0	0	0	0
7	10	-1	0	0	0	0
10	25	-1	0	0	0	0
11	3	-1	0	0	0	0
9	12	-1	0	0	0	0
12	13	-1	0	0	0	0
13	10	-1	0	0	0	0
12	14	-1	0	0	0	0
14	15	-1	0	0	0	0
15	13	-1	0	0	0	0
14	16	-1	0	0	0	0
16	50	-1	0	0	0	0
17	15	-1	0	0	0	0
18	11	-1	0	0	0	0
18	19	-1	0	0	0	0
19	20	-1	0	0	0	0
20	11	-1	0	0	0	0
21	18	-1	0	0	0	0
21	22	-1	0	0	0	0
22	19	-1	0	0	0	0
23	21	-1	0	0	0	0
23	24	-1	0	0	0	0
24	22	-1	0	0	0	0
25	23	-1	0	0	0	0
25	26	-1	0	0	0	0
26	24	-1	0	0	0	0
26	27	-1	0	0	0	0
27	28	-1	0	0	0	0
28	29	-1	0	0	0	0
29	20	-1	0	0	0	0
27	30	-1	0	0	0	0
30	31	-1	0	0	0	0
31	28	-1	0	0	0	0
30	32	-1	0	0	0	0
32	33	-1	0	0	0	0
33	31	-1	0	0	0	0
32	34	-1	0	0	0	0
34	35	-1	0	0	0	0
35	33	-1	0	0	0	0
36	37	-1	0	0	0	0
37	38	-1	0	0	0	0
38	39	-1	0	0	0	0
39	36	-1	0	0	0	0
37	40	-1	0	0	0	0
40	41	-1	0	0	0	0
41	38	-1	0	0	0	0
40	42	-1	0	0	0	0
42	43	-1	0	0	0	0
43	41	-1	0	0	0	0
42	44	-1	0	0	0	0
44	45	-1	0	0	0	0
45	43	-1	0	0	0	0
46	47	-1	0	0	0	0
47	17	-1	0	0	0	0
46	49	-1	0	0	0	0
49	48	-1	1	0	0	0
48	47	-1	0	0	0	0
50	51	-1	0	0	0	0
51	46	-1	0	0	0	0
50	53	-1	0	0	0	0
53	52	-1	2	0	0	0
52	51	-1	0	0	0	0
54	55	-1	0	0	0	0
[NumArcSegments] = 0
[NumHoles] = 0
[NumBlockLabels] = 23
7	235	4	-1	0	0
37	235	3	-1	0	0
68.5	235	2	-1	0	0
78	235	1	-1	0	0
38.5	765	4	-1	0	0
90.5	765	3	-1	0	0
115	765	2	-1	0	0
126.84999999999999	765	1	-1	0	0
11.5	1090	4	-1	0	0
31.5	1090	3	-1	0	0
48.5	1090	2	-1	0	0
58.5	1090	1	-1	0	0
35.5	1200	4	-1	0	0
73	1200	3	-1	0	0
76.5	1200	2	-1	0	0
79	1200	1	-1	0	0
167.69999999999999	760	4	-1	0	0
209.19999999999999	760	3	-1	0	0
226.69999999999999	760	2	-1	0	0
233.54999999999998	760	1	-1	0	0
128.19999999999999	935	5	-1	0	0
128.19999999999999	855	5	-1	0	0
290	640	6	-1	0	0
