[Format]      =  1
[Precision]   =  1e-008
[MinAngle]    =  30
[DoSmartMesh] =  1
[Depth]       =  7
[LengthUnits] =  centimeters
[ProblemType] =  planar
[Coordinates] =  cartesian
[Comment]     =  "Add comments here."
[PointProps]   = 0
[BdryProps]   = 1
  <BeginBdry>
    <BdryName> = "Ground"
    <BdryType> = 0
    <Vs> = 0
    <qs> = 0
    <c0> = 0
    <c1> = 0
  <EndBdry>
[BlockProps]  = 7
  <BeginBlock>
    <BlockName> = "Air"
    <ex> = 1
    <ey> = 1
    <qv> = 0
  <EndBlock>
  <BeginBlock>
    <BlockName> = "Skin"
    <ex> = 20000
    <ey> = 1
    <qv> = 0
  <EndBlock>
  <BeginBlock>
    <BlockName> = "Fat"
    <ex> = 100
    <ey> = 1
    <qv> = 0
  <EndBlock>
  <BeginBlock>
    <BlockName> = "Muscle"
    <ex> = 8000
    <ey> = 1
    <qv> = 0
  <EndBlock>
  <BeginBlock>
    <BlockName> = "Bone"
    <ex> = 250
    <ey> = 1
    <qv> = 0
  <EndBlock>
  <BeginBlock>
    <BlockName> = "Bone-Marrow"
    <ex> = 250
    <ey> = 1
    <qv> = 0
  <EndBlock>
  <BeginBlock>
    <BlockName> = "Wood"
    <ex> = 2
    <ey> = 1
    <qv> = 0
  <EndBlock>
[ConductorProps]  = 7
  <BeginConductor>
    <ConductorName> = "eTx-Signal"
    <Vc> = 5
    <qc> = 0
    <ConductorType> = 1
  <EndConductor>
  <BeginConductor>
    <ConductorName> = "eTx-Ground"
    <Vc> = 0
    <qc> = 0
    <ConductorType> = 1
  <EndConductor>
  <BeginConductor>
    <ConductorName> = "eRx-Signal"
    <Vc> = 0
    <qc> = 0
    <ConductorType> = 0
  <EndConductor>
  <BeginConductor>
    <ConductorName> = "eRx-Gnd"
    <Vc> = 0
    <qc> = 0
    <ConductorType> = 0
  <EndConductor>
  <BeginConductor>
    <ConductorName> = "eHead"
    <Vc> = 0
    <qc> = 0
    <ConductorType> = 0
  <EndConductor>
  <BeginConductor>
    <ConductorName> = "eBody"
    <Vc> = 0
    <qc> = 0
    <ConductorType> = 0
  <EndConductor>
  <BeginConductor>
    <ConductorName> = "eLeg"
    <Vc> = 0
    <qc> = 0
    <ConductorType> = 0
  <EndConductor>
[NumPoints] = 55
-12.5	19.399999999999999	0	0	0
-1.5	19.399999999999999	0	0	0
-1.5	8.5	0	0	0
-12.5	8.5	0	0	0
-14	8.4000000000000004	0	0	0
0	8.4000000000000004	0	0	0
0	-38.899999999999999	0	0	0
-14	-38.899999999999999	0	0	0
-12	-39	0	0	0
-2	-39	0	0	0
-2	-109	0	0	0
-12	-109	0	0	0
0	0	0	0	0
70	0	0	0	0
70	0.063	0	0	0
0	0.063	0	0	0
70	0.52000000000000002	0	0	0
0	0.52000000000000002	0	0	0
70	1.7749999999999999	0	0	0
0	1.7749999999999999	0	0	0
70	2.1269999999999998	0	0	0
0	2.1269999999999998	0	0	0
70	2.5	0	0	0
0	2.5	0	0	0
70	2.8519999999999999	0	0	0
0	2.8519999999999999	0	0	0
70	4.1070000000000002	0	0	0
0	4.1070000000000002	0	0	0
70	4.5640000000000001	0	0	0
0	4.5640000000000001	0	0	0
70	4.6269999999999998	0	0	0
0	4.6269999999999998	0	0	0
47	4.6269999999999998	0	0	0
50	4.6269999999999998	0	0	0
50	4.827	0	0	0
47	4.827	0	0	0
47	14.827	0	0	0
50	14.827	0	0	0
50	15.026999999999999	0	0	0
47	15.026999999999999	0	0	0
55	0	0	0	0
70	-0.20000000000000001	0	0	0
55	-0.20000000000000001	0	0	0
55	-30.399999999999999	0	0	0
58	-30.399999999999999	0	0	0
58	-30.199999999999999	0	0	0
55	-30.199999999999999	0	0	0
58	-0.20000000000000001	0	0	0
90	-30.399999999999999	0	0	0
90	-109	0	0	0
55	-109	0	0	0
-610	610	0	0	0
610	610	0	0	0
610	-610	0	0	0
-610	-610	0	0	0
[NumSegments] = 69
0	1	-1	0	0	0	5
1	2	-1	0	0	0	5
2	3	-1	0	0	0	5
3	0	-1	0	0	0	5
4	5	-1	0	0	0	6
5	31	-1	0	0	0	0
6	7	-1	0	0	0	6
7	4	-1	0	0	0	6
8	9	-1	0	0	0	7
9	10	-1	0	0	0	7
10	11	-1	0	0	0	7
11	8	-1	0	0	0	7
12	6	-1	0	0	0	6
12	40	-1	0	0	0	0
13	14	-1	0	0	0	0
15	12	-1	0	0	0	0
14	15	-1	0	0	0	0
14	16	-1	0	0	0	0
17	15	-1	0	0	0	0
16	17	-1	0	0	0	0
16	18	-1	0	0	0	0
19	17	-1	0	0	0	0
18	19	-1	0	0	0	0
18	20	-1	0	0	0	0
21	19	-1	0	0	0	0
20	21	-1	0	0	0	0
20	22	-1	0	0	0	0
23	21	-1	0	0	0	0
22	23	-1	0	0	0	0
22	24	-1	0	0	0	0
25	23	-1	0	0	0	0
24	25	-1	0	0	0	0
24	26	-1	0	0	0	0
27	25	-1	0	0	0	0
26	27	-1	0	0	0	0
26	28	-1	0	0	0	0
29	27	-1	0	0	0	0
28	29	-1	0	0	0	0
28	30	-1	0	0	0	0
31	29	-1	0	0	0	0
30	33	-1	0	0	0	0
32	31	-1	0	0	0	0
33	32	-1	0	0	0	1
33	34	-1	0	0	0	1
34	35	-1	0	0	0	1
35	32	-1	0	0	0	1
36	37	-1	0	0	0	2
37	38	-1	0	0	0	2
38	39	-1	0	0	0	2
39	36	-1	0	0	0	2
40	13	-1	0	0	0	3
13	41	-1	0	0	0	3
41	47	-1	0	0	0	3
42	40	-1	0	0	0	3
43	44	-1	0	0	0	4
44	45	-1	0	0	0	4
45	46	-1	0	0	0	4
46	43	-1	0	0	0	4
47	42	-1	0	0	0	0
47	45	-1	0	0	0	0
46	42	-1	0	0	0	0
44	48	-1	0	0	0	0
48	49	-1	0	0	0	0
49	50	-1	0	0	0	0
50	43	-1	0	0	0	0
51	52	-1	1	0	0	0
52	53	-1	1	0	0	0
53	54	-1	1	0	0	0
54	51	-1	1	0	0	0
[NumArcSegments] = 0
[NumHoles] = 7
-7	13.949999999999999	0
-7	-15.25	0
-7	-74	0
48.5	4.7270000000000003	0
48.5	14.927	0
62.5	-0.10000000000000001	0
56.5	-30.299999999999997	0
[NumBlockLabels] = 12
35	0.0315	2	-1	0	0
35	4.5954999999999995	2	-1	0	0
35	0.29149999999999998	3	-1	0	0
35	4.3354999999999997	3	-1	0	0
35	1.1475	4	-1	0	0
35	3.4794999999999998	4	-1	0	0
35	2.6760000000000002	5	-1	0	0
35	1.9509999999999998	5	-1	0	0
35	2.3134999999999999	6	-1	0	0
72.5	-69.700000000000003	7	-1	0	0
56.5	-15.199999999999999	7	-1	0	0
-597.79999999999995	597.79999999999995	1	-1	0	0
