[Format]      =  1
[Precision]   =  1e-008
[MinAngle]    =  30
[DoSmartMesh] =  1
[Depth]       =  1
[LengthUnits] =  inches
[ProblemType] =  planar
[Coordinates] =  cartesian
[Comment]     =  "Add comments here."
[PointProps]   = 0
[BdryProps]   = 0
[BlockProps]  = 2
  <BeginBlock>
    <BlockName> = "Plate"
    <ex> = 1
    <ey> = 1
    <qv> = 0
  <EndBlock>
  <BeginBlock>
    <BlockName> = "Air"
    <ex> = 1
    <ey> = 1
    <qv> = 0
  <EndBlock>
[ConductorProps]  = 2
  <BeginConductor>
    <ConductorName> = "Bottom_Plate"
    <Vc> = 0
    <qc> = 0
    <ConductorType> = 1
  <EndConductor>
  <BeginConductor>
    <ConductorName> = "Top_Plate"
    <Vc> = 1
    <qc> = 0
    <ConductorType> = 1
  <EndConductor>
[NumPoints] = 8
0	3	0	0	0
0	2.75	0	0	0
10	3	0	0	0
10	2.75	0	0	0
0	2.5	0	0	0
10	2.5	0	0	0
0	2.25	0	0	0
10	2.25	0	0	0
[NumSegments] = 10
2	0	-1	0	0	0	2
1	0	-1	0	0	0	2
1	3	-1	0	0	0	2
3	2	-1	0	0	0	2
5	4	-1	0	0	0	1
4	6	-1	0	0	0	1
6	7	-1	0	0	0	1
5	7	-1	0	0	0	1
4	1	-1	0	0	0	0
5	3	-1	0	0	0	0
[NumArcSegments] = 0
[NumHoles] = 0
[NumBlockLabels] = 3
4.4900000000000002	2.8799999999999999	1	-1	0	0
4.4900000000000002	2.3999999999999999	1	-1	0	0
6.0899999999999999	2.6400000000000001	2	-1	0	0
